Circuit: * C:\Users\Gustavo Simas\Documents\GitHub\EEL7120\Work\Tarefa3\2nor1_spice.asc

C_b: both pins shorted together -- ignoring.
Limiting rise time of source v1 to 5e-007
Limiting fall time of source v1 to 5e-007
WARNING: Less than two connections to node VOUT_DIG.  This node is used by A1.
Warning: Pd = 0 is less than W.
Warning: Ps = 0 is less than W.
Warning: Pd = 0 is less than W.
Warning: Ps = 0 is less than W.
Direct Newton iteration for .op point succeeded.

Date: Mon Sep 21 10:55:59 2020
Total elapsed time: 0.527 seconds.

tnom = 27
temp = 27
method = modified trap
totiter = 21921
traniter = 21910
tranpoints = 10435
accept = 10304
rejected = 131
matrix size = 9
fillins = 0
solver = Normal
Matrix Compiler1: 368 bytes object code size  0.1/0.1/[0.1]
Matrix Compiler2: 763 bytes object code size  0.1/0.1/[0.1]

